
  EPA STORM WATER MANAGEMENT MODEL - VERSION 5.0 (Build 5.0.022)
  --------------------------------------------------------------

  
  *********************************************************
  NOTE: The summary statistics displayed in this report are
  based on results found at every computational time step,  
  not just on results from each reporting time step.
  *********************************************************
  
  ****************
  Analysis Options
  ****************
  Flow Units ............... CFS
  Process Models:
    Rainfall/Runoff ........ NO
    Snowmelt ............... NO
    Groundwater ............ NO
    Flow Routing ........... YES
    Ponding Allowed ........ NO
    Water Quality .......... NO
  Flow Routing Method ...... DYNWAVE
  Starting Date ............ APR-10-2014 00:00:00
  Ending Date .............. APR-10-2014 06:00:00
  Antecedent Dry Days ...... 0.0
  Report Time Step ......... 00:01:00
  Routing Time Step ........ 30.00 sec
  

  WARNING 04: minimum elevation drop used for Conduit 3
  
  **************************        Volume        Volume
  Flow Routing Continuity        acre-feet      10^6 gal
  **************************     ---------     ---------
  Dry Weather Inflow .......         0.000         0.000
  Wet Weather Inflow .......         0.000         0.000
  Groundwater Inflow .......         0.000         0.000
  RDII Inflow ..............         0.000         0.000
  External Inflow ..........       381.396       124.284
  External Outflow .........       363.685       118.512
  Internal Outflow .........        25.070         8.169
  Storage Losses ...........         0.000         0.000
  Initial Stored Volume ....         0.057         0.019
  Final Stored Volume ......         0.978         0.319
  Continuity Error (%) .....        -2.171
  
  
  *************************
  Highest Continuity Errors
  *************************
  Node 3 (-2.52%)
  
  
  ***************************
  Time-Step Critical Elements
  ***************************
  Link 7 (53.50%)
  Link 3 (46.44%)
  
  
  ********************************
  Highest Flow Instability Indexes
  ********************************
  Link 3 (69)
  Link 1 (66)
  Link 2 (60)
  Link 8 (54)
  Link 4 (54)
  
  
  *************************
  Routing Time Step Summary
  *************************
  Minimum Time Step           :     0.59 sec
  Average Time Step           :     2.10 sec
  Maximum Time Step           :     3.25 sec
  Percent in Steady State     :     0.00
  Average Iterations per Step :     5.35
  
  
  ******************
  Node Depth Summary
  ******************
  
  ---------------------------------------------------------------------
                                 Average  Maximum  Maximum  Time of Max
                                   Depth    Depth      HGL   Occurrence
  Node                 Type         Feet     Feet     Feet  days hr:min
  ---------------------------------------------------------------------
  1                    JUNCTION     6.71     8.82    12.82     0  03:58
  3                    JUNCTION     7.70    10.00    13.00     0  03:03
  2                    JUNCTION     6.86     9.32    13.32     0  04:02
  4                    JUNCTION     2.36     4.91     7.91     0  04:07
  6                    JUNCTION     3.06     5.32     7.32     0  04:07
  5                    JUNCTION     2.10     5.10     8.10     0  03:48
  7                    JUNCTION     2.91     5.39     7.39     0  04:07
  8                    JUNCTION     3.86     6.49     7.49     0  04:02
  9                    OUTFALL      4.33     5.25     5.25     0  04:02
  
  
  *******************
  Node Inflow Summary
  *******************
  
  -------------------------------------------------------------------------------------
                                  Maximum  Maximum                  Lateral       Total
                                  Lateral    Total  Time of Max      Inflow      Inflow
                                   Inflow   Inflow   Occurrence      Volume      Volume
  Node                 Type           CFS      CFS  days hr:min    10^6 gal    10^6 gal
  -------------------------------------------------------------------------------------
  1                    JUNCTION   1099.88  1099.88     0  04:00      85.103      91.830
  3                    JUNCTION      0.00  1255.23     0  04:00       0.000     107.950
  2                    JUNCTION    100.00   141.47     0  04:43      13.466      16.159
  4                    JUNCTION      0.00  1672.17     0  03:58       0.000     102.523
  6                    JUNCTION      0.00   834.23     0  04:01       0.000      65.139
  5                    JUNCTION    100.00   168.40     0  03:47      13.466      16.176
  7                    JUNCTION      0.00   711.17     0  04:01       0.000      53.465
  8                    JUNCTION      0.00  1387.33     0  04:00       0.000     118.628
  9                    OUTFALL       0.00  1459.10     0  04:02       0.000     118.633
  
  
  **********************
  Node Surcharge Summary
  **********************
  
  Surcharging occurs when water rises above the top of the highest conduit.
  ---------------------------------------------------------------------
                                               Max. Height   Min. Depth
                                   Hours       Above Crown    Below Rim
  Node                 Type      Surcharged           Feet         Feet
  ---------------------------------------------------------------------
  3                    JUNCTION        0.73          0.000        0.000
  
  
  *********************
  Node Flooding Summary
  *********************
  
  Flooding refers to all water that overflows a node, whether it ponds or not.
  --------------------------------------------------------------------------
                                                             Total   Maximum
                                 Maximum   Time of Max       Flood    Ponded
                        Hours       Rate    Occurrence      Volume     Depth
  Node                 Flooded       CFS   days hr:min    10^6 gal      Feet
  --------------------------------------------------------------------------
  3                       0.73   1001.37      0  03:58       8.172     10.00
  
  
  ***********************
  Outfall Loading Summary
  ***********************
  
  -----------------------------------------------------------
                        Flow       Avg.      Max.       Total
                        Freq.      Flow      Flow      Volume
  Outfall Node          Pcnt.       CFS       CFS    10^6 gal
  -----------------------------------------------------------
  9                     86.54    808.15   1459.10     118.633
  -----------------------------------------------------------
  System                86.54    808.15   1459.10     118.633
  
  
  ********************
  Link Flow Summary
  ********************
  
  -----------------------------------------------------------------------------
                                 Maximum  Time of Max   Maximum    Max/    Max/
                                  |Flow|   Occurrence   |Veloc|    Full    Full
  Link                 Type          CFS  days hr:min    ft/sec    Flow   Depth
  -----------------------------------------------------------------------------
  1                    CONDUIT   1126.70     0  04:00     12.33    0.34    0.94
  2                    CONDUIT    210.82     0  04:40      2.54    0.06    0.97
  3                    CONDUIT   1672.17     0  03:58     25.70   15.95    0.72
  4                    CONDUIT    710.08     0  04:07     18.38    0.21    0.47
  5                    CONDUIT    198.19     0  03:45      6.48    0.06    0.51
  6                    CONDUIT    772.74     0  04:00     17.44    0.23    0.57
  7                    CONDUIT   1459.10     0  04:02     28.02    0.44    0.57
  8                    CONDUIT    711.17     0  04:01     19.23    0.21    0.47
  9                    CONDUIT    688.79     0  04:07     14.51    0.21    0.57
  
  
  ***************************
  Flow Classification Summary
  ***************************
  
  -----------------------------------------------------------------------------------------
                      Adjusted    --- Fraction of Time in Flow Class ----   Avg.     Avg.  
                       /Actual         Up    Down  Sub   Sup   Up    Down   Froude   Flow  
  Conduit               Length    Dry  Dry   Dry   Crit  Crit  Crit  Crit   Number   Change
  -----------------------------------------------------------------------------------------
  1                       1.00   0.00  0.00  0.00  0.87  0.00  0.00  0.00     0.40   0.0058
  2                       1.00   0.00  0.00  0.00  0.87  0.00  0.00  0.00     0.06   0.0052
  3                       1.00   0.00  0.00  0.00  0.42  0.45  0.00  0.00     0.77   4.5735
  4                       1.00   0.00  0.00  0.00  0.37  0.49  0.00  0.00     0.92   0.0038
  5                       1.00   0.00  0.00  0.00  0.87  0.00  0.00  0.00     0.31   0.0009
  6                       1.00   0.00  0.00  0.00  0.69  0.17  0.00  0.00     0.83   0.0012
  7                       1.00   0.00  0.00  0.00  0.06  0.80  0.00  0.00     1.19   0.0017
  8                       1.00   0.00  0.00  0.00  0.05  0.82  0.00  0.00     1.06   0.0036
  9                       1.00   0.00  0.00  0.00  0.79  0.08  0.00  0.00     0.72   0.0013
  
  
  *************************
  Conduit Surcharge Summary
  *************************
  
  ----------------------------------------------------------------------------
                                                           Hours        Hours 
                         --------- Hours Full --------   Above Full   Capacity
  Conduit                Both Ends  Upstream  Dnstream   Normal Flow   Limited
  ----------------------------------------------------------------------------
  3                           0.01      0.01      0.01      4.12         0.01
  

  Analysis begun on:  Thu Apr 10 13:58:02 2014
  Analysis ended on:  Thu Apr 10 13:58:02 2014
  Total elapsed time: < 1 sec